case6_microgrid.m
function mpc = case6ww
%CASE6WW  Power flow data for 6 bus, 3 gen case from Wood & Wollenberg.
%   Please see CASEFORMAT for details on the case file format.
%
%   This is the 6 bus example from pp. 104, 112, 119, 123-124, 549 of
%   "Power Generation, Operation, and Control, 2nd Edition",
%   by Allen. J. Wood and Bruce F. Wollenberg, John Wiley & Sons, NY, Jan 1996.

%   MATPOWER

%% MATPOWER Case Format : Version 2
mpc.version = '2';

%%-----  Power Flow Data  -----%%
%% system MVA base
mpc.baseMVA = 100;
mpc.Zb = 220^2/mpc.baseMVA;
L1 = mpc.Zb/25;
L2 = mpc.Zb/20;

%% bus data
%	bus_i	type	Pd	Qd	Gs	Bs	area	Vm	Va	baseKV	zone	Vmax	Vmin
mpc.bus = [
	1	1	0	0	L1	0	1       1	0	230	1	1.05	0.95;
	2	1	0	0	0	0	1       1	0	230	1	1.05	0.95;
	3	1	0	0	L2	0   1       1	0	230	1	1.07	0.95;
	4	3	0	0	0	0	1       1	0	230	1	1.05	0.95;
	5	2	0	0	0	0	1       1	0	230	1	1.05	0.95;
	6	2	0	0	0	0	1       1	0	230	1	1.05	0.95;
];

%% generator data
%	bus	Pg	Qg	Qmax	Qmin	Vg	mBase	status	Pmax	Pmin	Pc1	Pc2	Qc1min	Qc1max	Qc2min	Qc2max	ramp_agc	ramp_10	ramp_30	ramp_q	apf
mpc.gen = [
	4	0	0	100	-100	1	100	1	200	50	0	0	0	0	0	0	0	0	0	0	0;
	5	50	0	100	-100	1	100	1	150	37.5	0	0	0	0	0	0	0	0	0	0	0;
	6	60	0	100	-100	1	100	1	180	45	0	0	0	0	0	0	0	0	0	0	0;
];

%% branch data
%	fbus	tbus	r	x	b	rateA	rateB	rateC	ratio	angle	status	angmin	angmax
mpc.branch = [
	1	2	0.23/mpc.Zb	0.1/mpc.Zb     0	40	40	40	0	0	1	-360	360;
	1	4	0.03/mpc.Zb	0.11/mpc.Zb	0	60	60	60	0	0	1	-360	360;
	2	3	0.35/mpc.Zb	0.58/mpc.Zb	0	40	40	40	0	0	1	-360	360;
	2	5	0.03/mpc.Zb	0.11/mpc.Zb	0	30	30	30	0	0	1	-360	360;
	3	6	0.03/mpc.Zb	0.11/mpc.Zb	0	80	80	80	0	0	1	-360	360;
];

%%-----  OPF Data  -----%%
%% generator cost data
%	1	startup	shutdown	n	x1	y1	...	xn	yn
%	2	startup	shutdown	n	c(n-1)	...	c0
mpc.gencost = [
	2	0	0	3	0.00533	11.669	213.1;
	2	0	0	3	0.00889	10.333	200;
	2	0	0	3	0.00741	10.833	240;
];
